768
19.739599 19.739599 19.739599
H -1.412523 4.959026 7.208499
O -0.915644 4.351682 6.554802
H -0.960903 3.430307 6.968140
H 9.261868 8.007876 -2.229149
O 9.272320 8.993939 -2.433110
H 9.532535 9.509530 -1.611976
H 3.590508 -0.865749 -5.607551
O 4.024855 -0.350071 -4.858613
H 4.564475 0.450768 -5.153332
H 7.684369 4.545812 -2.559862
O 6.717321 4.738736 -2.365007
H 6.274847 4.979073 -3.253460
H 2.945047 -3.255985 -6.241098
O 2.413354 -2.479122 -6.609954
H 1.552449 -2.282014 -6.102147
H -2.203645 5.996323 3.889090
O -1.331170 5.538426 4.121479
H -1.266423 5.266413 5.097233
H 9.127173 2.870932 -0.564650
O 9.695477 3.154616 -1.348743
H 9.386396 4.000586 -1.798680
H -4.595049 -5.696813 -2.256432
O -4.616256 -5.894771 -1.266902
H -5.519886 -6.288688 -0.970152
H 9.531131 -2.928211 -3.964199
O 8.842274 -3.109065 -3.219312
H 8.132271 -3.773299 -3.525104
H 4.938730 -7.505870 -5.268074
O 4.974572 -7.150146 -6.209032
H 4.783994 -6.153656 -6.142817
H 8.397225 9.479978 0.843835
O 8.643592 8.690282 0.249936
H 9.641519 8.442269 0.377184
H 6.331828 1.312505 -3.151634
O 5.588680 2.001368 -3.172206
H 4.704152 1.699446 -2.765060
H -5.221137 -4.406691 -7.983362
O -4.442822 -4.381862 -7.350379
H -4.286536 -5.312757 -6.994322
H 4.939062 -1.258810 -0.143790
O 4.558075 -1.759733 -0.939323
H 5.251550 -2.002991 -1.637478
H -3.481528 2.630139 5.023488
O -4.123649 1.994249 4.587658
H -4.282072 2.067621 3.607930
H -8.668896 -4.176733 9.339700
O -9.315188 -4.500061 -9.673916
H -9.740735 -5.401310 9.810958
H 7.647817 -8.283388 0.881139
O 7.604802 -8.949670 1.643974
H 7.248191 -8.407227 2.427744
H -4.295565 -6.439588 8.464766
O -3.984022 -5.773321 9.175118
H -3.539564 -4.955217 8.789185
H -3.853195 -8.010683 -9.867932
O -3.323014 -8.213522 -9.012767
H -3.057795 -9.186648 -8.948215
H 4.614880 -9.321291 8.833258
O 4.440149 9.697621 9.520857
H 3.724134 9.023450 9.309463
H -9.507871 4.831850 9.640208
O 9.804123 5.740085 9.712158
H 9.739590 6.135008 8.779408
H 1.307850 6.459588 -9.617097
O 0.474071 5.990148 -9.260392
H -0.180791 6.571377 -8.740789
H 1.446518 2.755861 -4.216226
O 1.737631 2.413674 -5.124032
H 2.210573 3.076598 -5.708905
H -9.597526 -8.833038 6.443588
O -8.739805 -8.471197 6.845118
H -8.519401 -7.483140 6.689252
H -8.780335 0.694905 0.844635
O -9.010051 1.645615 1.077859
H 9.821091 1.950590 0.755078
H 2.564485 2.632718 -0.311869
O 1.858711 3.329391 -0.511019
H 1.829008 4.010375 0.239098
H 7.177372 -6.510173 8.235119
O 7.469295 -6.686823 7.297092
H 7.621097 -7.660952 7.078730
H 9.601148 4.854092 -6.921632
O 9.396511 4.275908 -6.117810
H -9.537506 4.366117 -5.511841
H -9.374232 -4.795033 -1.866607
O -9.344535 -5.746986 -2.234287
H -9.128071 -5.850182 -3.205785
H 3.703068 -8.518458 -8.984256
O 3.194175 -7.758526 -8.551226
H 3.711460 -7.547745 -7.698364
H 5.668059 3.071498 -4.347809
O 6.002617 3.531527 -5.194533
H 5.407248 3.390473 -5.996885
H 2.686795 -7.662531 -4.841060
O 2.355640 -6.718534 -5.042108
H 2.999326 -6.011142 -5.392036
H 9.235787 -2.244437 -7.943130
O -9.817453 -1.725516 -7.393689
H -9.101125 -1.246720 -7.890676
H 2.667270 4.417022 2.871610
O 2.816141 4.541245 1.866708
H 3.506605 5.282539 1.776267
H -2.869392 2.026301 6.429246
O -3.071947 2.411235 7.336220
H -3.511732 1.692767 7.887204
H -8.769936 -2.161605 -1.848836
O -8.168888 -2.948919 -1.749233
H -7.178149 -2.754162 -1.674781
H 9.140951 -7.408618 -5.634763
O 9.495254 -6.798930 -4.905886
H -9.369210 -6.313544 -5.139092
H -3.815938 8.239750 2.919140
O -3.066256 7.759297 3.399564
H -2.218316 7.811455 2.851038
H 8.564489 8.214358 -8.614678
O 9.168252 8.205094 -9.415412
H 9.724993 7.356603 -9.416732
H 2.633760 -3.835975 5.516181
O 2.469828 -3.086475 6.165156
H 3.241295 -2.839509 6.768953
H -3.259140 9.342381 4.313973
O -4.025993 -9.828835 4.640382
H -3.752560 -9.147770 5.339918
H 9.384564 1.884219 5.359082
O 8.677378 1.166996 5.513812
H 8.007283 1.396678 6.245540
H -8.801883 -7.965564 2.800777
O -9.491360 -8.558221 3.239774
H -8.968289 -9.379222 3.530175
H 1.589663 1.574991 5.839071
O 2.206620 2.351068 5.677167
H 2.594397 2.647855 6.578628
H 7.986033 6.662325 2.754392
O 8.666157 6.112303 3.270161
H 8.699746 5.161277 2.942525
H -2.994034 -6.165739 3.998875
O -3.584934 -6.286692 4.814016
H -4.465928 -5.832333 4.660152
H -7.962295 8.102427 3.797033
O -7.155692 8.314479 3.221229
H -6.313951 7.839239 3.567557
H -9.755587 3.567792 4.176810
O -9.775335 3.676497 5.188837
H 9.618167 4.599038 5.400790
H -5.539851 -3.351860 0.430792
O -5.726234 -2.782958 -0.379214
H -4.832288 -2.457988 -0.752870
H -6.705039 -0.593840 -2.341051
O -6.061013 -1.097747 -2.929459
H -6.555456 -1.436525 -3.750457
H 2.763724 -1.792385 -1.494831
O 1.770762 -1.667585 -1.359916
H 1.583096 -0.873502 -0.755758
H -7.941137 9.069529 -0.966537
O -7.848274 9.336130 -1.944369
H -6.844643 9.329714 -2.057029
H 0.383181 9.125482 1.551139
O 0.534174 -9.616413 1.399070
H 0.327256 -9.343186 0.447793
H -6.146009 -4.799120 7.466621
O -5.688007 -4.191769 6.796294
H -4.708848 -4.053002 7.015585
H 7.418197 -8.784666 -7.609549
O 7.429291 -8.097181 -6.868544
H 6.533553 -7.892928 -6.471193
H 4.433813 -4.469714 -4.338793
O 4.466910 -4.214326 -5.309113
H 5.322339 -3.699043 -5.417744
H 3.191668 4.980975 -8.903984
O 3.574136 4.473949 -9.690733
H 4.020894 3.704758 -9.207926
H 5.074918 -5.299577 5.464012
O 4.536786 -6.036285 5.915076
H 4.946300 -6.403890 6.765343
H 7.889255 -6.617490 -7.618591
O 7.991879 -5.610251 -7.580373
H 8.664231 -5.349396 -6.862939
H -4.107829 6.735302 -5.683156
O -4.235088 7.648934 -6.093950
H -5.217709 7.829708 -6.126832
H -0.926282 -1.666791 6.005015
O -1.171373 -0.726098 5.672710
H -1.956496 -0.350634 6.159903
H 0.648883 6.541566 7.267710
O 1.436348 5.892485 7.225502
H 1.214180 4.975919 6.872104
H -2.391840 -0.630303 -5.763280
O -2.041288 -0.949807 -6.650302
H -1.381846 -0.257834 -7.011471
H -9.019534 9.174355 7.421824
O -8.817267 8.214794 7.203861
H -8.909037 8.055615 6.204707
H -2.606515 3.419872 1.281274
O -3.102684 3.527226 2.145453
H -4.049457 3.237029 1.973826
H -9.441353 -8.080973 -3.822029
O -8.526947 -8.530686 -3.816817
H -8.578431 -9.416474 -3.312487
H 6.908766 6.243488 -1.078360
O 7.036788 5.985371 -0.100020
H 7.100838 4.989597 -0.178821
H -7.486983 -5.553651 -5.531547
O -7.610440 -5.872660 -4.580900
H -7.567536 -6.873492 -4.434012
H -2.844756 -9.422554 7.931479
O -2.919433 9.413550 8.354529
H -3.731148 8.907130 8.025710
H -7.535689 -9.414788 9.337094
O -7.521340 -8.884562 -9.563664
H -6.948234 -9.312140 -8.842353
H -1.888590 -6.678197 -8.806407
O -1.088966 -6.492097 -9.401509
H -1.455853 -6.351785 9.402685
H 2.949947 -4.730439 -9.351529
O 3.437561 -5.175363 -8.569329
H 3.223404 -6.151198 -8.365282
H 4.020149 -8.624114 1.670742
O 3.327973 -8.423799 2.377940
H 2.872998 -7.534197 2.255223
H 3.019516 -3.264356 -3.039935
O 3.213421 -4.241405 -3.099582
H 2.440530 -4.780568 -3.463509
H 8.101017 -1.063638 5.269116
O 8.352674 -1.283281 4.328378
H 8.465633 -0.372421 3.903486
H -8.830959 -4.205477 0.329274
O -7.958891 -4.716355 0.307321
H -7.324710 -4.138814 -0.242216
H 9.124445 -3.503726 1.019187
O 9.365635 -3.344763 0.060897
H 9.123938 -2.401936 -0.245531
H -7.673009 -5.886495 9.547817
O -6.895424 -5.771107 8.910413
H -6.075677 -6.061681 9.419223
H 8.138653 6.739739 7.108188
O 8.808061 5.967752 7.182451
H 8.214744 5.178526 7.418667
H -5.539300 9.113166 -9.223351
O -5.590191 8.920034 -8.248155
H -5.552997 7.934509 -8.068920
H -0.808183 -9.750000 5.661112
O -1.572361 -9.108911 5.506412
H -1.713527 -8.424333 6.211203
H -0.200890 7.095126 2.955262
O -0.392360 8.044767 3.175378
H -0.798366 7.995492 4.105532
H -5.066183 1.016667 6.421063
O -5.914856 0.536824 6.718097
H -6.679258 0.568659 6.062175
H 9.233671 -3.607741 -5.933584
O -9.816579 -4.327311 -5.775749
H -8.951054 -3.824777 -5.856493
H -7.430329 -5.137457 5.977020
O -7.785890 -6.036358 6.332063
H -7.976783 -5.965289 7.333058
H 0.065446 8.516705 6.549784
O -0.502457 7.656035 6.496873
H -1.502281 7.812118 6.521396
H -7.178163 1.158682 -6.527704
O -7.837635 1.854784 -6.195044
H -8.043574 2.441977 -7.012255
H 5.026192 -6.346438 9.318978
O 4.509299 -6.849574 8.602151
H 3.607763 -7.146092 8.980821
H -3.920484 -7.149893 6.399936
O -4.022908 -7.858189 7.120247
H -4.854623 -8.443906 7.131404
H -7.934752 4.217609 -3.948147
O -8.518032 5.063204 -4.042902
H -7.954837 5.916546 -3.980522
H 7.520783 -9.564981 4.948568
O 8.488544 -9.431097 5.219733
H 8.973179 -8.732687 4.630064
H 4.387398 6.667509 -3.855577
O 5.319263 7.076545 -3.739450
H 5.726449 7.477271 -4.576732
H 2.662089 1.664533 3.507612
O 3.111510 0.997376 2.896213
H 3.343405 0.115820 3.360653
H 2.290864 -9.848747 4.598329
O 1.984801 8.992985 4.228365
H 1.211632 9.094505 3.589972
H 0.657309 9.182713 -6.641914
O 1.122360 8.297591 -6.503575
H 2.132148 8.364902 -6.356724
H 7.351216 5.388111 -6.045814
O 7.083003 6.142300 -6.663869
H 7.776405 6.881513 -6.781816
H 0.669615 0.945609 0.815990
O 1.328658 0.253026 1.132493
H 2.096809 0.663444 1.689471
H 1.685496 4.900889 -8.016676
O 1.879686 4.607363 -7.065324
H 1.046513 4.287794 -6.619689
H 5.692045 0.696922 9.443523
O 5.605486 -0.282674 9.187308
H 5.991646 -0.918807 -9.845831
H -1.154784 -3.010568 -0.756036
O -0.836333 -2.082986 -1.014731
H 0.140149 -1.992512 -1.295542
H -7.319281 6.612106 -7.899455
O -7.735033 6.730161 -6.985579
H -7.836547 7.689826 -6.631352
H -1.097463 -4.800684 3.034657
O -1.938096 -4.511838 3.527338
H -2.211853 -3.540342 3.464694
H -8.561749 -1.711909 4.398525
O -8.054935 -2.215665 3.686779
H -7.662344 -1.559119 3.024627
H 1.946876 -2.131015 2.981274
O 2.811379 -2.393966 2.538163
H 2.784241 -2.586574 1.546265
H 7.160898 -2.611996 -3.283388
O 6.191446 -2.486586 -3.025367
H 5.672679 -1.929419 -3.705470
H 6.265514 2.140628 6.538146
O 6.991938 2.222843 7.250698
H 7.791535 2.774522 6.937605
H -2.733599 0.054808 8.483171
O -3.331169 -0.196406 7.713424
H -4.155235 -0.715605 7.979095
H 5.563795 6.389842 2.351101
O 5.534736 5.429532 2.678481
H 5.511802 4.786359 1.899225
H 1.217762 -8.040401 -1.728456
O 0.372730 -8.257473 -2.259963
H -0.372716 -7.623452 -2.017784
H 8.419044 -0.557990 -1.083173
O 8.341523 -0.786298 -0.106567
H 9.025673 -0.334035 0.484237
H -3.353540 2.100411 -6.892831
O -4.277029 2.332347 -7.249793
H -4.616633 1.514740 -7.733688
H -7.399768 2.328133 4.544129
O -7.703378 1.455292 4.159127
H -8.451859 1.511654 3.497853
H 8.058212 1.447965 -3.422181
O 8.024413 0.625457 -2.823109
H 8.351212 -0.238755 -3.267809
H -1.082739 5.614398 0.851838
O -1.504106 5.822325 -0.022812
H -1.044767 5.437993 -0.825607
H 1.184681 -9.767013 8.231147
O 0.945994 -9.572436 7.256007
H 1.089928 -8.613155 6.986261
H -9.338877 -6.818268 -0.094915
O 9.518174 -6.841997 0.390587
H 9.523588 -6.189446 1.161801
H 3.719371 -4.287916 2.587357
O 4.499729 -4.891048 2.321323
H 4.564195 -4.924670 1.311090
H -8.635064 4.944690 0.058300
O -7.773941 4.421174 -0.065992
H -7.852004 3.455928 -0.363071
H 1.028085 -0.664408 -2.986049
O 0.166970 -0.500441 -3.506816
H -0.282535 0.407042 -3.402507
H -4.542223 -8.633559 -2.025071
O -5.298591 -9.297794 -2.097893
H -6.218170 -8.899568 -1.971737
H 7.787987 -3.868117 -0.566685
O 7.014629 -4.425451 -0.933763
H 6.237036 -3.852461 -1.236886
H -0.593158 -6.032378 7.005341
O -1.519739 -6.237010 7.384841
H -2.175110 -5.971192 6.678063
H -1.671317 -1.490412 2.578925
O -2.558163 -1.933098 2.815407
H -3.368766 -1.332709 2.654845
H -5.007625 4.574230 2.734315
O -5.124672 5.570069 2.640928
H -4.225845 6.005853 2.762246
H 6.661147 -2.166712 7.285366
O 6.216512 -2.574563 6.474805
H 6.906886 -3.082725 5.903574
H -8.399014 6.423672 7.422118
O -7.851390 5.579622 7.262725
H -7.841810 4.874252 7.981879
H -5.068270 -8.028595 -5.588721
O -4.287376 -7.746832 -6.171011
H -4.265435 -8.323571 -7.013590
H -9.552845 2.353774 -8.736533
O -8.723318 2.723933 -8.273689
H -8.015066 3.057178 -8.900792
H -9.638494 -0.132219 7.398342
O 9.737807 0.200874 8.283171
H 8.722056 0.120594 8.217393
H 0.544274 -0.338649 5.752339
O 1.513165 -0.359872 5.427134
H 1.684353 -1.182809 4.864047
H -5.305366 0.709303 -9.503452
O -5.116808 1.310224 9.443622
H -5.742415 1.163291 8.661074
H 5.889291 3.303264 9.472548
O 6.038441 2.351567 9.774879
H 6.996849 2.141226 9.484294
H 4.933335 2.275507 -7.505865
O 4.041119 2.680909 -7.265928
H 3.421851 2.281162 -7.951178
H -3.370274 9.607996 0.203568
O -2.486812 9.706375 -0.281687
H -2.232521 -9.058514 -0.215404
H 1.706365 -5.418159 6.787335
O 1.041528 -6.132449 6.557639
H 1.341834 -7.059234 6.844946
H 3.340512 -9.146615 6.392215
O 3.251949 -8.730613 5.477443
H 3.296240 -7.727445 5.470243
H -5.135594 8.668912 0.876558
O -4.600713 9.164562 1.590422
H -4.803022 -9.597713 1.754008
H -4.037703 -4.382574 -4.742946
O -4.398731 -4.388387 -3.791541
H -4.495698 -3.474347 -3.342471
H 4.340080 -4.406554 7.768335
O 4.173374 -3.861083 8.592249
H 4.993656 -3.592211 9.098900
H 4.660635 2.626827 7.746480
O 3.702077 2.935968 7.712520
H 3.514981 3.477609 8.550591
H -0.945210 -4.158631 5.181801
O -0.630794 -3.544975 5.931688
H -0.448227 -4.103862 6.756108
H -4.949813 3.755246 6.847186
O -5.323174 4.488689 6.256923
H -6.213603 4.899105 6.481117
H 5.394523 5.921790 -9.356525
O 6.386049 5.852564 -9.136990
H 6.642056 5.791410 -8.144726
H -0.256172 -8.764524 2.771961
O -0.398595 -7.945718 3.363379
H -1.113223 -8.233155 4.029114
H -7.404393 7.958047 -3.316676
O -6.935538 7.373904 -4.012450
H -6.814579 7.935076 -4.838684
H 2.340423 1.531368 -1.712304
O 3.305654 1.337108 -1.908829
H 3.527413 0.339918 -1.851411
H 8.958115 -7.286946 -1.075034
O 8.459785 -7.801438 -1.789129
H 8.068279 -7.179332 -2.478374
H 5.858713 4.968186 5.423038
O 6.309566 5.441717 6.197432
H 5.606937 5.776990 6.857423
H -8.526686 -0.689601 9.121788
O -7.838464 -0.700344 9.867080
H -7.387642 -1.614788 -9.803588
H -9.641164 -0.156970 5.535099
O -8.712861 -0.470332 5.772119
H -7.930072 -0.277600 5.151136
H 4.570355 8.504186 -2.970172
O 3.964349 8.991984 -2.327568
H 3.174607 8.477422 -2.003948
H 7.162130 -9.401226 9.758382
O 6.896982 -9.692165 -9.051945
H 5.926210 9.699154 -9.079742
H -1.316080 8.419357 -7.023911
O -1.809837 7.826486 -7.687877
H -2.596898 7.333127 -7.318025
H 3.646231 9.474900 0.615424
O 2.848981 8.845130 0.703746
H 2.892913 8.594859 1.692866
H 6.415318 -3.815574 -6.794425
O 6.888707 -3.242921 -6.108043
H 6.684161 -2.255582 -6.042341
H -0.294263 3.593559 3.630183
O -0.132214 2.716755 3.154513
H -1.072384 2.412965 3.009171
H 2.054580 3.900240 4.650167
O 2.335057 4.876025 4.599898
H 1.595498 5.487529 4.255205
H -1.773458 2.927431 -5.574627
O -1.897486 2.190386 -6.286636
H -1.008257 1.796577 -6.616577
H 7.330029 -5.396523 -2.691202
O 7.430375 -5.542849 -3.692130
H 8.183490 -6.150446 -4.033238
H 6.351816 7.143452 4.740089
O 6.219979 8.114474 4.521289
H 6.111198 8.307589 3.517643
H 0.687026 -0.803487 2.348262
O 0.210443 -1.278351 3.117671
H -0.080355 -0.646724 3.859875
H 2.542051 9.457117 -4.092282
O 2.199283 -9.341499 -4.285239
H 1.571892 -8.998293 -3.547529
H -0.451083 -6.112340 -6.548565
O -1.174748 -5.394914 -6.530744
H -1.135147 -4.859650 -5.663983
H 8.060000 7.899320 9.002231
O 7.246378 7.815150 8.391321
H 6.460013 7.273534 8.740149
H 4.016963 7.199267 7.035579
O 4.189088 6.480198 7.728632
H 3.354775 6.035519 8.083686
H 0.091386 -8.577366 -4.562660
O -0.789133 -9.065798 -4.713806
H -1.581868 -8.675440 -4.202833
H 5.218384 -5.608850 -8.812964
O 6.055469 -5.394690 -9.335670
H 6.893548 -5.339863 -8.764603
H 8.574553 -3.115420 8.785873
O 9.047422 -2.808722 7.945193
H -9.700444 -2.703167 8.034258
H 8.616324 6.088737 0.453500
O 9.545547 5.690740 0.571164
H -9.756379 6.252195 1.300083
H -2.054386 4.150617 9.663651
O -1.060252 3.969754 9.640553
H -0.509661 4.818178 9.538699
H 3.921494 6.421407 3.494973
O 3.523540 7.258148 3.104775
H 2.873767 7.818601 3.678124
H -5.942720 -4.234589 2.843731
O -5.785871 -4.678594 3.737858
H -5.717703 -3.997190 4.475650
H -6.632639 5.361466 3.978135
O -7.607449 5.496837 4.172194
H -7.832357 5.282775 5.151868
H -1.169334 -8.840383 -7.936218
O -0.420567 -9.269160 -7.434036
H -0.504305 -9.232561 -6.422333
H -5.629290 -0.528477 -7.705257
O -6.025291 0.401274 -7.769949
H -6.857658 0.435010 -8.368199
H -1.102715 -5.507820 -0.281608
O -1.641405 -4.653402 -0.280449
H -2.585075 -5.006803 -0.373121
H -5.406899 3.033588 0.995722
O -5.767448 2.384392 1.665508
H -6.761089 2.323727 1.886334
H -3.741052 4.111764 -8.669929
O -3.898496 4.176242 -9.656712
H -4.331850 3.354605 9.700029
H -8.154403 -2.171420 -5.001921
O -8.714118 -1.393807 -4.630767
H -8.992012 -0.828581 -5.424292
H 3.413470 0.245488 7.565004
O 2.916515 0.031790 8.428671
H 2.735451 -0.920255 8.677513
H 7.371749 -5.581490 2.747684
O 7.085817 -6.497080 2.483516
H 6.090092 -6.629518 2.304850
H -5.850169 8.574919 6.273825
O -5.242427 7.772108 6.217921
H -4.600464 7.878844 5.440032
H -3.187136 -7.200085 -0.704097
O -2.570500 -7.198878 0.095767
H -3.008618 -7.667391 0.883431
H 9.293903 -7.797171 9.407102
O -9.757193 -7.069934 9.494058
H -8.892446 -7.519502 9.799077
H -5.106555 5.314138 -3.896710
O -4.203853 5.748399 -3.730834
H -4.058031 6.249672 -2.860512
H 7.383998 2.607405 0.281420
O 8.163301 2.891749 0.860918
H 8.290965 2.370803 1.712197
H -4.235438 1.002480 -4.776687
O -3.525050 1.383103 -4.154971
H -2.681825 1.704336 -4.592369
H 5.083776 -1.414240 5.963188
O 4.395288 -0.701604 6.218128
H 3.583594 -0.689151 5.631229
H -7.168230 -5.985998 3.384302
O -7.583439 -6.480539 2.602285
H -7.718795 -5.813498 1.837197
H 1.270948 -4.845558 3.145221
O 1.803720 -5.069178 3.965510
H 1.938429 -6.035908 4.225472
H -6.035120 -2.873720 -5.906537
O -6.924630 -3.269143 -5.618424
H -6.951829 -3.870073 -4.800346
H 0.044963 -2.843583 -9.661353
O -0.950925 -2.838480 -9.396666
H -1.048479 -3.401659 -8.558427
H -1.631064 5.286705 -4.465660
O -1.551772 4.288602 -4.568153
H -1.056548 3.808164 -3.821129
H -6.298595 3.991107 -4.729512
O -6.303006 3.464421 -3.850415
H -5.372843 3.366967 -3.451058
H -8.985230 3.274967 2.025905
O -9.296048 3.723022 2.866379
H -8.583441 4.298942 3.302521
H 5.529138 9.528510 7.012272
O 4.595677 9.200327 6.815382
H 4.633359 9.012183 5.813647
H -9.722767 3.107566 6.906437
O 9.583170 2.961616 7.801898
H 9.658260 1.983953 8.076372
H -5.158761 7.232151 -0.466382
O -5.928222 7.136861 0.185091
H -5.861961 6.371493 0.834371
H -4.130755 0.852046 -2.337251
O -4.019481 0.710925 -1.324012
H -4.490931 1.329187 -0.668491
H 0.915425 5.659387 -3.166113
O 1.148646 4.687354 -3.175697
H 2.065670 4.469448 -3.559207
H -1.002477 1.440333 -2.002717
O -0.583965 2.142937 -2.627947
H -0.128621 2.836677 -2.052024
H 5.358743 0.168160 2.012027
O 5.226910 -0.664600 1.453021
H 5.644445 -1.505723 1.859294
H -0.815494 0.641714 -9.329616
O -1.733916 0.909071 -9.635220
H -1.816677 1.897794 -9.833859
H -3.834286 6.668680 7.275585
O -2.892714 6.668474 7.624297
H -2.704838 7.301505 8.394492
H 4.980914 2.728428 4.306415
O 5.220971 2.336490 5.214999
H 4.445942 1.866725 5.674088
H -0.436834 -6.451128 2.170745
O -0.097370 -5.539169 1.877607
H -0.709487 -5.125740 1.173403
H 5.860936 -3.569802 2.419145
O 6.723498 -3.034746 2.383523
H 7.016395 -2.534334 3.213325
H 8.454538 9.760431 -4.086272
O 8.872279 -9.532365 -4.907828
H 8.297622 -9.031721 -5.589745
H 7.027195 8.833714 2.054224
O 6.657336 7.898179 1.942248
H 6.860180 7.441472 1.047813
H 1.064396 1.507222 -7.927792
O 0.357025 1.428352 -7.194255
H 0.635230 1.135244 -6.257295
H -4.552270 4.586573 -1.152482
O -5.124157 3.920698 -0.658567
H -6.086612 4.229485 -0.493646
H -9.561739 7.037836 -6.245954
O 9.275765 7.435255 -6.066168
H 9.426480 8.179130 -5.381787
H -4.262753 -1.389475 -1.561154
O -3.562240 -2.111675 -1.747600
H -2.603772 -1.857030 -1.935741
H 7.320247 0.280250 -5.716535
O 7.140555 -0.703825 -5.606378
H 7.954950 -1.309181 -5.686139
H 7.136714 -3.106402 -8.836053
O 8.151570 -3.088847 -8.788862
H 8.568863 -4.010134 -8.674205
H -3.932539 -5.086061 1.514542
O -4.062753 -4.080005 1.501406
H -3.657528 -3.609663 2.281865
H -9.672175 5.717937 -2.722433
O 9.238330 6.106270 -2.287747
H 9.507553 6.305065 -1.340223
H -8.865355 9.710825 -6.259099
O -8.007168 9.192031 -6.371307
H -7.287970 9.749245 -6.807660
H -8.114842 8.722041 1.387489
O -8.508744 8.115889 0.675094
H -7.835569 7.370185 0.463706
H 0.367749 9.607087 -9.335961
O 0.741094 8.874566 9.791762
H 0.140024 8.087654 9.565731
H 0.164741 -7.637794 9.769669
O 1.131226 -7.941591 9.653513
H 1.640146 -8.305815 -9.291735
H 0.005541 7.393523 -0.561416
O 0.407489 7.507717 -1.478911
H -0.273257 7.684540 -2.213161
H -1.087880 8.414927 -4.274463
O -0.854775 7.417856 -4.219841
H -0.104861 7.213976 -4.877005
H 4.131048 -8.526883 -3.367511
O 5.060355 -8.165112 -3.515425
H 5.803594 -8.804507 -3.235135
H 6.803917 -7.837117 -1.147129
O 6.137570 -7.190384 -0.745913
H 6.573534 -6.326676 -0.454989
H -7.426216 -7.320192 0.177178
O -7.096916 -7.424203 -0.771900
H -7.803283 -7.302274 -1.495790
H 7.383072 2.506126 -5.367962
O 8.120859 1.798701 -5.369330
H 9.058285 2.155055 -5.518711
H 6.008831 -8.116261 5.211035
O 5.811056 -8.811100 4.524260
H 4.816715 -8.756824 4.351835
H 2.445034 0.993140 -9.848269
O 2.098620 1.639086 -9.144171
H 1.399777 2.241424 -9.569673
H -5.905719 4.628896 -8.695453
O -6.767347 4.971582 -9.081594
H -6.613762 5.660398 -9.786589
H 2.254285 6.006642 -5.505878
O 2.773486 6.392030 -4.724209
H 3.525312 6.939473 -5.136636
H -9.109384 -3.647648 2.767596
O 9.731987 -4.117118 2.777885
H 9.020531 -3.571576 3.244667
H -2.599815 -3.058441 9.125082
O -3.073892 -3.155892 8.233812
H -3.479434 -2.275582 7.940505
H 7.845632 -5.050152 4.356585
O 7.847975 -4.502448 5.194688
H 7.977260 -5.113147 5.984981
H -2.931035 -6.529425 -3.693770
O -3.111197 -7.510321 -3.861103
H -3.440766 -7.553500 -4.816670
H -8.119682 -4.866997 -7.608335
O -7.303788 -5.447373 -7.783934
H -7.257983 -6.320856 -7.282024
H -7.447162 -1.732821 0.243519
O -8.002852 -1.488258 1.048610
H -8.843479 -2.043475 1.136509
H 3.825157 9.505177 -6.024724
O 3.965182 8.504882 -6.101607
H 4.709978 8.293324 -6.717031
H -7.916981 1.532738 -2.670195
O -8.638611 0.996422 -2.201680
H -9.550312 1.457402 -2.167502
H 3.803289 4.547225 -0.749786
O 4.753515 4.349592 -0.496510
H 5.443672 4.473933 -1.230734
H 5.108133 -8.365829 -0.137864
O 4.637699 -9.259337 0.002192
H 4.452847 -9.753046 -0.873663
H 5.001125 -2.555253 -7.760511
O 5.475295 -1.954323 -8.433199
H 4.831210 -1.431403 -9.006168
H -7.013977 -8.881253 6.802925
O -6.129264 -9.369695 6.643299
H -5.966914 -9.377181 5.656634
H -1.242965 -0.643596 -0.740677
O -1.502631 0.347551 -0.586678
H -2.458073 0.535688 -0.866620
H -5.587848 -1.617900 1.287976
O -5.150529 -1.007632 1.971179
H -5.311471 -0.015514 1.817135
H -2.734553 6.625287 -1.245063
O -3.650920 7.062994 -1.304940
H -3.533059 8.070120 -1.280398
H 9.605008 9.067094 4.914566
O -9.565754 8.345682 4.479480
H 9.808458 7.588230 3.901353
H 1.111770 -4.988720 1.102566
O 1.600178 -4.264421 0.565179
H 1.217385 -4.169632 -0.362800
H -5.218818 -7.628042 2.154661
O -4.260887 -7.722459 2.453074
H -4.166328 -7.913295 3.455905
H -8.197622 -2.274996 7.132066
O -7.827664 -2.727133 7.964146
H -7.051840 -3.311747 7.695992
H -6.318034 5.466666 -6.246087
O -5.587656 4.827853 -5.935469
H -5.022706 4.292026 -6.593163
H 8.465713 0.874855 -7.647639
O 8.663825 0.945293 -8.622893
H 9.445510 0.360770 -8.855563
H -0.465196 -2.552803 -5.002810
O -0.077720 -3.421917 -4.650248
H 0.665229 -3.164901 -3.998757
H -3.659535 -1.431146 -7.070097
O -4.508125 -1.895354 -7.335783
H -4.364885 -2.892286 -7.510361
H 7.398608 9.212632 7.800506
O 7.595984 -9.520280 7.731253
H 7.976568 -9.348874 6.800074
H 1.855063 -2.244160 -8.580770
O 1.839532 -2.624922 -9.509702
H 2.806400 -2.735763 -9.809087
